Version 4
SHEET 1 1024 680
WIRE 128 -592 128 -624
WIRE 48 -544 16 -544
WIRE 80 -544 48 -544
WIRE 224 -544 208 -544
WIRE 48 -512 48 -544
WIRE 128 -464 128 -496
WIRE 48 -400 48 -432
FLAG 128 -464 0
FLAG 224 -544 Out
IOPIN 224 -544 Out
FLAG 128 -624 VDD
IOPIN 128 -624 In
FLAG 16 -544 In
IOPIN 16 -544 In
FLAG 48 -400 0
SYMBOL voltage 48 -528 R0
WINDOW 0 7 8 Left 2
WINDOW 3 16 99 Left 2
SYMATTR InstName Vin
SYMATTR Value 0
SYMBOL Inverter 96 -544 R0
SYMATTR InstName X1
TEXT 104 -424 Left 2 !.dc Vin 0 1 1m
TEXT 104 -392 Left 2 !VDD VDD 0 DC 1
